Version 4
SHEET 1 1224 700
WIRE -192 0 -304 0
WIRE -96 0 -192 0
WIRE 80 0 -96 0
WIRE 240 0 80 0
WIRE 304 0 240 0
WIRE 416 0 368 0
WIRE -304 16 -304 0
WIRE -192 16 -192 0
WIRE -96 16 -96 0
WIRE 80 48 80 0
WIRE 240 48 240 0
WIRE -304 112 -304 96
WIRE -192 112 -192 80
WIRE -96 112 -96 96
WIRE -16 112 -96 112
WIRE 416 112 416 0
WIRE 416 112 336 112
WIRE 688 128 528 128
WIRE 800 128 688 128
WIRE 416 144 416 112
WIRE 688 144 688 128
WIRE 800 144 800 128
WIRE 528 160 528 128
WIRE -144 176 -160 176
WIRE -16 176 -64 176
WIRE 368 176 336 176
WIRE 368 240 368 176
WIRE 368 240 336 240
WIRE 480 240 368 240
WIRE 688 240 688 208
WIRE 800 240 800 224
WIRE 416 304 416 208
WIRE 416 304 336 304
WIRE 528 304 528 256
WIRE 528 304 416 304
WIRE 688 304 528 304
WIRE 688 320 688 304
WIRE 528 352 528 304
WIRE -160 368 -176 368
WIRE -16 368 -80 368
WIRE 368 368 336 368
WIRE 368 432 368 368
WIRE 368 432 336 432
WIRE 480 432 368 432
WIRE 688 432 688 400
WIRE 528 464 528 448
WIRE 80 512 80 496
WIRE 240 512 240 496
FLAG -304 112 0
FLAG 240 512 0
FLAG 80 512 0
FLAG -160 176 0
FLAG -176 368 0
FLAG -192 112 0
FLAG 688 240 0
FLAG 528 464 0
FLAG 688 432 0
FLAG 800 240 0
FLAG 800 128 IN
FLAG 688 304 OUT
SYMBOL PowerProducts\\LT1160 160 256 R0
SYMATTR InstName U1
SYMBOL voltage -304 0 R0
WINDOW 123 0 0 Left 2
WINDOW 39 0 0 Left 2
SYMATTR InstName V1
SYMATTR Value 12
SYMBOL res -112 0 R0
SYMATTR InstName R1
SYMATTR Value 10K
SYMBOL voltage -48 176 R90
WINDOW 0 -32 56 VBottom 2
WINDOW 3 32 56 VTop 2
WINDOW 123 60 56 VTop 2
SYMATTR InstName V2
SYMATTR Value PULSE(0 3.3 0
SYMATTR Value2 1n 1n 1u 10u)
SYMBOL voltage -64 368 R90
WINDOW 0 -32 56 VBottom 2
WINDOW 3 32 56 VTop 2
WINDOW 123 60 56 VTop 2
SYMATTR InstName V3
SYMATTR Value PULSE(0 3.3 5u
SYMATTR Value2 1n 1n 1u 10u)
SYMBOL nmos 480 160 R0
SYMATTR InstName Q1
SYMATTR Value IRFZ44N
SYMBOL nmos 480 352 R0
SYMATTR InstName Q2
SYMATTR Value IRFZ44N
SYMBOL cap -208 16 R0
SYMATTR InstName C1
SYMATTR Value 10µ
SYMBOL diode 304 16 R270
WINDOW 0 32 32 VTop 2
WINDOW 3 0 32 VBottom 2
SYMATTR InstName D1
SYMATTR Value 1N4148
SYMBOL cap 400 144 R0
SYMATTR InstName C2
SYMATTR Value 1µ
SYMBOL voltage 800 128 R0
WINDOW 123 0 0 Left 2
WINDOW 39 0 0 Left 2
SYMATTR InstName V4
SYMATTR Value 24
SYMBOL cap 672 144 R0
SYMATTR InstName C3
SYMATTR Value 100µ
SYMBOL ind 672 304 R0
WINDOW 39 36 108 Left 2
SYMATTR SpiceLine Rser=.16
SYMATTR InstName Lload
SYMATTR Value .7m
TEXT 592 496 Left 2 !.tran 1m startup
TEXT 256 -40 Bottom 2 ;LT1160 - Half-/Full-Bridge N-Channel Power MOSFET Drivers\n60V Max Supply Referenced DC Motor Half-Bridge Driver
TEXT -440 520 Left 2 ;Note:\n  If the simulation model is not found please update with the "Sync Release" command from the "Tools" menu.\n  It remains the customer's responsibility to verify proper and reliable operation in the actual application.\n  Component substitution and printed circuit board layout may significantly affect circuit performance or reliability.\n  Contact your local sales representative for assistance. This circuit is distributed to customers only for use with LTC parts.\n  Copyright © 2012 Linear Technology Inc. All rights reserved.
